Circuit: * C:\Users\13372\Documents\GitHub\TNCMCU\Schematic\Ltspice\Rx_circuit\Draft1.asc

Direct Newton iteration for .op point succeeded.

Date: Tue Oct 20 15:21:15 2020
Total elapsed time: 0.047 seconds.

tnom = 27
temp = 27
method = modified trap
totiter = 5359
traniter = 5356
tranpoints = 2679
accept = 1847
rejected = 832
matrix size = 4
fillins = 0
solver = Normal
Matrix Compiler1:       8 opcodes  0.0/[0.0]/0.0
Matrix Compiler2:      21 opcodes  0.0/[0.0]/0.0

