Circuit: * C:\Users\13372\Documents\GitHub\TNCMCU\Schematic\Ltspice\Rx_circuit\Rx_circuit1.asc

Direct Newton iteration for .op point succeeded.

Date: Mon Oct 19 12:35:30 2020
Total elapsed time: 28.309 seconds.

tnom = 27
temp = 27
method = modified trap
totiter = 3986504
traniter = 3986495
tranpoints = 1364544
accept = 905988
rejected = 458556
matrix size = 14
fillins = 2
solver = Normal
Matrix Compiler1: 848 bytes object code size  0.2/0.1/[0.1]
Matrix Compiler2: off  [0.1]/0.2/0.1

