Circuit: * C:\Users\13372\Documents\GitHub\TNCMCU\Schematic\Ltspice\Rx_circuit\Rx_circuit1.asc

Direct Newton iteration for .op point succeeded.

Date: Sat Oct 17 16:31:18 2020
Total elapsed time: 8.595 seconds.

tnom = 27
temp = 27
method = modified trap
totiter = 3667815
traniter = 3667806
tranpoints = 1269352
accept = 842447
rejected = 426905
matrix size = 14
fillins = 2
solver = Normal
Matrix Compiler1: 848 bytes object code size  0.1/0.1/[0.1]
Matrix Compiler2: 1.03 KB object code size  0.1/0.1/[0.1]

