Circuit: * C:\Users\13372\Documents\GitHub\TNCMCU\Schematic\Ltspice\Rx_circuit\Rx_circuit1.asc

Direct Newton iteration for .op point succeeded.
Heightened Def Con from 0.0754304 to 0.0754304

Date: Mon Oct 19 22:19:10 2020
Total elapsed time: 7.108 seconds.

tnom = 27
temp = 27
method = modified trap
totiter = 3795434
traniter = 3795426
tranpoints = 1282782
accept = 857637
rejected = 425146
matrix size = 13
fillins = 0
solver = Normal
Matrix Compiler1: 656 bytes object code size  0.1/0.1/[0.1]
Matrix Compiler2: off  [0.1]/0.1/0.1

